Version 4
SHEET 1 3272 904
WIRE 240 -736 224 -736
WIRE 416 -736 320 -736
WIRE -352 -720 -400 -720
WIRE -176 -720 -272 -720
WIRE 96 -720 -96 -720
WIRE 224 -720 224 -736
WIRE 224 -720 96 -720
WIRE -400 -672 -400 -720
WIRE 2592 -656 2240 -656
WIRE 96 -624 96 -720
WIRE 96 -624 64 -624
WIRE 64 -608 64 -624
WIRE 80 -608 64 -608
WIRE 80 -544 64 -544
WIRE 2240 -480 2240 -656
WIRE 2336 -480 2240 -480
WIRE 2592 -464 2592 -656
WIRE 2592 -464 2400 -464
WIRE 1248 -448 1216 -448
WIRE 1600 -448 1328 -448
WIRE 1856 -448 1664 -448
WIRE 2032 -448 1856 -448
WIRE 2176 -448 2096 -448
WIRE 2336 -448 2176 -448
WIRE 1216 -432 1216 -448
WIRE 1856 -416 1856 -448
WIRE 2176 -384 2176 -448
WIRE -176 -320 -176 -720
WIRE -80 -320 -112 -320
WIRE -80 -304 -80 -320
WIRE 64 -304 64 -544
WIRE 64 -304 -80 -304
WIRE 272 -304 64 -304
WIRE 416 -304 416 -736
WIRE 416 -304 336 -304
WIRE 64 -272 64 -304
WIRE 112 -272 64 -272
WIRE 2176 -272 2176 -304
WIRE 1856 -224 1856 -336
WIRE 2592 -224 2592 -464
WIRE 2592 -224 1856 -224
WIRE 1024 -128 672 -128
WIRE 2592 -112 2240 -112
WIRE -304 16 -336 16
WIRE -208 16 -304 16
WIRE -80 16 -128 16
WIRE 112 16 0 16
WIRE 144 16 112 16
WIRE 288 16 224 16
WIRE 464 16 288 16
WIRE 592 16 544 16
WIRE 624 16 592 16
WIRE -336 32 -336 16
WIRE 672 48 672 -128
WIRE 768 48 672 48
WIRE 1024 64 1024 -128
WIRE 1024 64 832 64
WIRE 2240 64 2240 -112
WIRE 2336 64 2240 64
WIRE 624 80 624 16
WIRE 768 80 624 80
WIRE 2592 80 2592 -112
WIRE 2592 80 2400 80
WIRE 2688 80 2592 80
WIRE 2848 80 2768 80
WIRE 1248 96 1216 96
WIRE 1728 96 1328 96
WIRE 1856 96 1808 96
WIRE 2032 96 1856 96
WIRE 2176 96 2112 96
WIRE 2336 96 2176 96
WIRE 288 112 288 16
WIRE 1216 112 1216 96
WIRE 1856 128 1856 96
WIRE 2848 144 2848 80
WIRE 2176 160 2176 96
WIRE 1024 224 1024 64
WIRE 112 240 112 16
WIRE 128 240 112 240
WIRE 240 240 192 240
WIRE 448 240 240 240
WIRE 464 240 448 240
WIRE 592 240 592 16
WIRE 592 240 512 240
WIRE 2176 240 2176 224
WIRE 2848 240 2848 208
WIRE 0 304 0 272
WIRE 1856 320 1856 192
WIRE 2592 320 2592 80
WIRE 2592 320 1856 320
WIRE 240 336 240 240
WIRE 1024 464 1024 304
WIRE 1024 464 704 464
WIRE 240 480 240 416
WIRE 288 480 288 176
WIRE 288 480 240 480
WIRE 496 480 288 480
WIRE 640 480 496 480
WIRE 848 496 704 496
WIRE 0 528 0 384
WIRE 128 528 0 528
WIRE 128 544 128 528
WIRE 1024 592 1024 464
WIRE 0 624 0 528
WIRE 496 656 496 480
WIRE 848 656 848 496
WIRE 848 656 496 656
WIRE 0 752 0 704
WIRE -304 864 -304 16
WIRE 1024 864 1024 672
WIRE 1024 864 -304 864
FLAG 128 544 0
FLAG 0 272 9V
FLAG 0 752 -9V
FLAG 800 96 -9V
FLAG 816 32 9V
FLAG -336 32 0
FLAG 672 448 -9V
IOPIN 672 448 In
FLAG 656 512 9V
IOPIN 656 512 In
FLAG -400 -672 0
FLAG 112 -192 0
FLAG 2368 112 -9V
FLAG 2384 48 9V
FLAG 1216 112 0
FLAG 2176 240 0
FLAG 2848 240 0
FLAG 2368 -432 -9V
FLAG 2384 -496 9V
FLAG 1216 -432 0
FLAG 2176 -272 0
SYMBOL OpAmps\\LM108A 800 0 R0
SYMATTR InstName U1
SYMBOL voltage 0 288 R0
WINDOW 123 0 0 Left 0
WINDOW 39 0 0 Left 0
SYMATTR InstName V1
SYMATTR Value 9
SYMBOL voltage 0 608 R0
WINDOW 123 0 0 Left 0
WINDOW 39 0 0 Left 0
SYMATTR InstName V2
SYMATTR Value 9
SYMBOL OpAmps\\LM108A 672 544 R180
SYMATTR InstName U2
SYMBOL res 240 0 R90
WINDOW 0 0 56 VBottom 2
WINDOW 3 32 56 VTop 2
SYMATTR InstName R1
SYMATTR Value 270k
SYMBOL res 560 0 R90
WINDOW 0 0 56 VBottom 2
WINDOW 3 32 56 VTop 2
SYMATTR InstName R2
SYMATTR Value 270k
SYMBOL cap 192 224 R90
WINDOW 0 0 32 VBottom 2
WINDOW 3 32 32 VTop 2
SYMATTR InstName C3
SYMATTR Value 10nF
SYMBOL res 224 320 R0
SYMATTR InstName R3
SYMATTR Value 120k
SYMBOL cap 512 224 R90
WINDOW 0 0 32 VBottom 2
WINDOW 3 32 32 VTop 2
SYMATTR InstName C4
SYMATTR Value 10nF
SYMBOL voltage -112 16 R90
WINDOW 0 -32 56 VBottom 2
WINDOW 3 32 56 VTop 2
WINDOW 123 -4 56 VBottom 2
WINDOW 39 0 0 Left 0
SYMATTR InstName V3
SYMATTR Value ""
SYMATTR Value2 AC 0.27
SYMBOL res 1008 208 R0
SYMATTR InstName R4
SYMATTR Value 270k
SYMBOL res 1008 576 R0
SYMATTR InstName R5
SYMATTR Value 1k
SYMBOL res -80 -736 R90
WINDOW 0 0 56 VBottom 2
WINDOW 3 32 56 VTop 2
SYMATTR InstName R6
SYMATTR Value 2k
SYMBOL cap 64 -608 R0
SYMATTR InstName C5
SYMATTR Value 2.6µf
SYMBOL res 336 -752 R90
WINDOW 0 0 56 VBottom 2
WINDOW 3 32 56 VTop 2
SYMATTR InstName R7
SYMATTR Value 2k
SYMBOL cap -112 -336 R90
WINDOW 0 0 32 VBottom 2
WINDOW 3 32 32 VTop 2
SYMATTR InstName C6
SYMATTR Value 1.3µ
SYMBOL res 96 -288 R0
SYMATTR InstName R8
SYMATTR Value 1k
SYMBOL cap 336 -320 R90
WINDOW 0 0 32 VBottom 2
WINDOW 3 32 32 VTop 2
SYMATTR InstName C7
SYMATTR Value 1.3µF
SYMBOL voltage -256 -720 R90
WINDOW 0 -32 56 VBottom 2
WINDOW 3 32 56 VTop 2
WINDOW 123 -4 56 VBottom 2
WINDOW 39 0 0 Left 0
SYMATTR InstName V4
SYMATTR Value ""
SYMATTR Value2 AC 1
SYMBOL cap 272 112 R0
SYMATTR InstName C1
SYMATTR Value 20nF
SYMBOL res 16 0 R90
WINDOW 0 0 56 VBottom 2
WINDOW 3 32 56 VTop 2
SYMATTR InstName R9
SYMATTR Value 1k
SYMBOL OpAmps\\LM108A 2368 16 R0
SYMATTR InstName U3
SYMBOL res 2128 80 R90
WINDOW 0 0 56 VBottom 2
WINDOW 3 32 56 VTop 2
SYMATTR InstName R11
SYMATTR Value 3.9k
SYMBOL voltage 1344 96 R90
WINDOW 0 -32 56 VBottom 2
WINDOW 3 32 56 VTop 2
WINDOW 123 -4 56 VBottom 2
WINDOW 39 0 0 Left 0
SYMATTR InstName V7
SYMATTR Value ""
SYMATTR Value2 AC 0.27
SYMBOL cap 1840 128 R0
SYMATTR InstName C9
SYMATTR Value 100nF
SYMBOL cap 2160 160 R0
SYMATTR InstName C2
SYMATTR Value 47nF
SYMBOL res 1824 80 R90
WINDOW 0 -3 56 VBottom 2
WINDOW 3 32 56 VTop 2
SYMATTR InstName R10
SYMATTR Value 6.8k
SYMBOL cap 2832 144 R0
WINDOW 3 28 67 Left 2
SYMATTR Value 100nF
SYMATTR InstName C8
SYMBOL res 2784 64 R90
WINDOW 0 -3 56 VBottom 2
WINDOW 3 32 56 VTop 2
SYMATTR InstName R12
SYMATTR Value 6.8k
SYMBOL OpAmps\\LM108A 2368 -528 R0
SYMATTR InstName U4
SYMBOL voltage 1344 -448 R90
WINDOW 0 -32 56 VBottom 2
WINDOW 3 32 56 VTop 2
WINDOW 123 -4 56 VBottom 2
WINDOW 39 0 0 Left 0
SYMATTR InstName V5
SYMATTR Value ""
SYMATTR Value2 AC 0.27
SYMBOL cap 1664 -464 R90
WINDOW 0 0 32 VBottom 2
WINDOW 3 32 32 VTop 2
SYMATTR InstName C15
SYMATTR Value 1µF
SYMBOL cap 2096 -464 R90
WINDOW 0 0 32 VBottom 2
WINDOW 3 32 32 VTop 2
SYMATTR InstName C11
SYMATTR Value 1µF
SYMBOL res 1840 -432 R0
SYMATTR InstName R14
SYMATTR Value 8.2k
SYMBOL res 2160 -400 R0
SYMATTR InstName R15
SYMATTR Value 15k
TEXT -360 872 Left 2 !.ac dec 10 1 10000
